diff -Nur hostap-driver-0.1.2-old/Makefile hostap-driver-0.1.2/Makefile
--- hostap-driver-0.1.2-old/Makefile	2003-08-03 20:50:09.000000000 +0200
+++ hostap-driver-0.1.2/Makefile	2004-02-02 03:11:26.000000000 +0100
@@ -1,6 +1,6 @@
 # Edit this path to match with your system (it should point to the root
 # directory of the Linux kernel source)
-KERNEL_PATH=/usr/src/linux
+KERNEL_PATH=$(KERNEL_DIR)
 
 # Systems using external pcmcia-cs package (instead of kernel-tree pcmcia
 # modules):
@@ -14,8 +14,8 @@
 # This path will be prepended to every installed file
 DESTDIR=
 
-CC=gcc
-CFLAGS=-O2 -D__KERNEL__ -DMODULE -Wall -g -c $(EXTRA_CFLAGS)
+CC=$(CROSS_COMPILE)gcc
+CFLAGS=-Os -D__KERNEL__ -DMODULE -Wall -g -c $(EXTRA_CFLAGS)
 
 include $(KERNEL_PATH)/.config
 
@@ -242,15 +242,15 @@
 	mkdir -p $(MODPATH_CS)
 	cp -f $(MSRC)/$(MODULE_CS) $(MODPATH_CS)
 ifndef DESTDIR
-	/sbin/depmod -ae
+	#/sbin/depmod -ae
 endif
 
 install_conf:
-	@if [ ! -r $(DESTDIR)/etc/pcmcia/hostap_cs.conf ]; then \
+	#@if [ ! -r $(DESTDIR)/etc/pcmcia/hostap_cs.conf ]; then \
 		echo "Installing $(DESTDIR)/etc/pcmcia/hostap_cs.conf"; \
 		cp -f driver/etc/hostap_cs.conf $(DESTDIR)/etc/pcmcia/hostap_cs.conf; \
 	fi
-	@if [ -r $(DESTDIR)/etc/pcmcia/prism2.conf ]; then \
+	#@if [ -r $(DESTDIR)/etc/pcmcia/prism2.conf ]; then \
 		echo "You may need to remove old $(DESTDIR)/etc/pcmcia/prism2.conf"; \
 	fi
 
diff -Nur hostap-driver-0.1.2-old/driver/modules/hostap_config.h hostap-driver-0.1.2/driver/modules/hostap_config.h
--- hostap-driver-0.1.2-old/driver/modules/hostap_config.h	2003-11-03 04:40:26.000000000 +0100
+++ hostap-driver-0.1.2/driver/modules/hostap_config.h	2004-02-02 03:21:01.000000000 +0100
@@ -1,6 +1,6 @@
 #ifndef HOSTAP_CONFIG_H
 #define HOSTAP_CONFIG_H
-
+#define RAW_TXPOWER_SETTING
 #define PRISM2_VERSION "0.1.2 - 2003-11-02"
 
 /* In the previous versions of Host AP driver, support for user space version
@@ -61,12 +61,12 @@
  * version is less than 15 (actually, only if it is 12 .. 14). If ver >= 15,
  * these will be included. Please note, that this requires iwpriv version 25
  * or higher (older versions will segfault due to long ioctl list). */
-/* #define PRISM2_USE_WE_SUB_IOCTLS */
+#define PRISM2_USE_WE_SUB_IOCTLS
 
 /* Use IW_PRIV_TYPE_ADDR with private WE ioctls taking MAC address argument
  * (instead of old 18*char). This requires iwpriv ver >= 25. This will be
  * automatically included for WIRELESS_EXT >= 15. */
-/* #define PRISM2_USE_WE_TYPE_ADDR */
+#define PRISM2_USE_WE_TYPE_ADDR
 
 /* Save low-level I/O for debugging. This should not be enabled in normal use.
  */
